/*--------------------------------*- C++ -*----------------------------------*\
  =========                 |
  \\      /  F ield         | OpenFOAM: The Open Source CFD Toolbox
   \\    /   O peration     | Website:  https://openfoam.org
    \\  /    A nd           | Version:  10
     \\/     M anipulation  |
\*---------------------------------------------------------------------------*/
FoamFile
{
    format      ascii;
    class       polyBoundaryMesh;
    location    "constant/polyMesh";
    object      boundary;
}
// * * * * * * * * * * * * * * * * * * * * * * * * * * * * * * * * * * * * * //

3
(
    frontAndBack
    {
        type            empty;
        inGroups        List<word> 1(empty);
        nFaces          144900;
        startFace       144403;
    }
    farfield
    {
        type            patch;
        nFaces          801;
        startFace       289303;
    }
    airfoil
    {
        type            wall;
        inGroups        List<word> 1(wall);
        nFaces          193;
        startFace       290104;
    }
)

// ************************************************************************* //
